Version 4
SHEET 1 1752 1104
WIRE 192 32 80 32
WIRE 352 32 192 32
WIRE 528 32 352 32
WIRE 736 32 528 32
WIRE 896 32 736 32
WIRE 1072 32 896 32
WIRE 144 80 32 80
WIRE 304 80 144 80
WIRE 480 80 304 80
WIRE 688 80 480 80
WIRE 848 80 688 80
WIRE 1024 80 848 80
WIRE 32 112 32 80
WIRE 192 128 192 32
WIRE 352 128 352 32
WIRE 528 128 528 32
WIRE 736 128 736 32
WIRE 896 128 896 32
WIRE 1072 128 1072 32
WIRE 144 144 144 80
WIRE 304 144 304 80
WIRE 480 144 480 80
WIRE 688 144 688 80
WIRE 848 144 848 80
WIRE 1024 144 1024 80
WIRE -320 224 -368 224
WIRE -288 224 -320 224
WIRE -176 224 -208 224
WIRE -32 224 -176 224
WIRE 0 224 -32 224
WIRE 192 224 192 208
WIRE 192 224 64 224
WIRE -176 240 -176 224
WIRE 736 240 736 208
WIRE 736 240 64 240
WIRE -320 256 -320 224
WIRE 352 256 352 208
WIRE 352 256 80 256
WIRE 896 272 896 208
WIRE 896 272 96 272
WIRE 528 288 528 208
WIRE 528 288 112 288
WIRE -32 304 -32 224
WIRE 0 304 -32 304
WIRE 64 304 64 240
WIRE 1072 304 1072 208
WIRE 1072 304 128 304
WIRE 192 336 192 224
WIRE 352 336 352 256
WIRE 528 336 528 288
WIRE 736 336 736 240
WIRE 896 336 896 272
WIRE 1072 336 1072 304
WIRE -320 352 -320 320
WIRE -176 352 -176 320
WIRE -176 352 -320 352
WIRE -320 400 -320 352
WIRE 192 416 192 400
WIRE 352 416 352 400
WIRE 352 416 192 416
WIRE 528 416 528 400
WIRE 528 416 352 416
WIRE 736 416 736 400
WIRE 896 416 896 400
WIRE 896 416 736 416
WIRE 1072 416 1072 400
WIRE 1072 416 896 416
WIRE 192 464 192 416
WIRE 240 464 192 464
WIRE 352 464 320 464
WIRE 416 464 352 464
WIRE 736 464 736 416
WIRE 784 464 736 464
WIRE 896 464 864 464
WIRE 960 464 896 464
WIRE -320 480 -368 480
WIRE -288 480 -320 480
WIRE -176 480 -208 480
WIRE -48 480 -176 480
WIRE 0 480 -48 480
WIRE 80 480 80 256
WIRE 80 480 64 480
WIRE -176 496 -176 480
WIRE 192 496 192 464
WIRE 736 496 736 464
WIRE -320 512 -320 480
WIRE 352 512 352 464
WIRE 896 512 896 464
WIRE -48 560 -48 480
WIRE 0 560 -48 560
WIRE 96 560 96 272
WIRE 96 560 64 560
WIRE -320 608 -320 576
WIRE -176 608 -176 576
WIRE -176 608 -320 608
WIRE 192 608 192 576
WIRE 352 608 352 576
WIRE 352 608 192 608
WIRE 736 608 736 576
WIRE 896 608 896 576
WIRE 896 608 736 608
WIRE -320 656 -320 608
WIRE 192 656 192 608
WIRE 736 656 736 608
WIRE -320 736 -368 736
WIRE -288 736 -320 736
WIRE -176 736 -208 736
WIRE -48 736 -176 736
WIRE 0 736 -48 736
WIRE 112 736 112 288
WIRE 112 736 64 736
WIRE -176 752 -176 736
WIRE -320 768 -320 736
WIRE -48 816 -48 736
WIRE 0 816 -48 816
WIRE 128 816 128 304
WIRE 128 816 64 816
WIRE -320 864 -320 832
WIRE -176 864 -176 832
WIRE -176 864 -320 864
WIRE -320 912 -320 864
FLAG 32 112 0
FLAG 80 32 VDD
FLAG 192 656 0
FLAG -320 400 0
FLAG -368 224 ROW_ON
FLAG 144 192 ROW1
FLAG 304 192 COL1
FLAG 480 192 DIG1
FLAG 736 656 0
FLAG 688 192 ROW2
FLAG 848 192 COL2
FLAG 1024 192 DIG2
FLAG -320 656 0
FLAG -368 480 COL_ON
FLAG -320 912 0
FLAG -368 736 DIG_ON
FLAG 416 464 KEY1
FLAG 960 464 KEY2
SYMBOL sw 192 112 R0
WINDOW 3 24 44 Left 2
SYMATTR Value ""
SYMATTR InstName S1
SYMATTR SpiceModel SW
SYMBOL diode 176 336 R0
SYMATTR InstName D1
SYMBOL res 176 480 R0
SYMATTR InstName R1
SYMATTR Value {PD}
SYMBOL res 336 448 R90
WINDOW 0 0 56 VBottom 2
WINDOW 3 32 56 VTop 2
SYMATTR InstName R2
SYMATTR Value {R}
SYMBOL cap 336 512 R0
SYMATTR InstName C1
SYMATTR Value {C}
SYMBOL diode 64 208 R90
WINDOW 0 0 32 VBottom 2
WINDOW 3 32 32 VTop 2
SYMATTR InstName D7
SYMBOL res -192 224 R0
SYMATTR InstName R3
SYMATTR Value {PD}
SYMBOL res -192 208 R90
WINDOW 0 0 56 VBottom 2
WINDOW 3 32 56 VTop 2
SYMATTR InstName R4
SYMATTR Value {R}
SYMBOL cap -336 256 R0
SYMATTR InstName C2
SYMATTR Value {C}
SYMBOL sw 352 112 R0
WINDOW 3 24 44 Left 2
SYMATTR Value ""
SYMATTR InstName S2
SYMATTR SpiceModel SW
SYMBOL diode 336 336 R0
SYMATTR InstName D2
SYMBOL sw 528 112 R0
WINDOW 3 24 44 Left 2
SYMATTR Value ""
SYMATTR InstName S3
SYMATTR SpiceModel SW
SYMBOL diode 512 336 R0
SYMATTR InstName D3
SYMBOL sw 736 112 R0
WINDOW 3 24 44 Left 2
SYMATTR Value ""
SYMATTR InstName S4
SYMATTR SpiceModel SW
SYMBOL diode 720 336 R0
SYMATTR InstName D4
SYMBOL res 720 480 R0
SYMATTR InstName R5
SYMATTR Value {PD}
SYMBOL res 880 448 R90
WINDOW 0 0 56 VBottom 2
WINDOW 3 32 56 VTop 2
SYMATTR InstName R6
SYMATTR Value {R}
SYMBOL cap 880 512 R0
SYMATTR InstName C3
SYMATTR Value {C}
SYMBOL sw 896 112 R0
WINDOW 3 24 44 Left 2
SYMATTR Value ""
SYMATTR InstName S5
SYMATTR SpiceModel SW
SYMBOL diode 880 336 R0
SYMATTR InstName D5
SYMBOL sw 1072 112 R0
WINDOW 3 24 44 Left 2
SYMATTR Value ""
SYMATTR InstName S6
SYMATTR SpiceModel SW
SYMBOL diode 1056 336 R0
SYMATTR InstName D6
SYMBOL res -192 480 R0
SYMATTR InstName R7
SYMATTR Value {PD}
SYMBOL res -192 464 R90
WINDOW 0 0 56 VBottom 2
WINDOW 3 32 56 VTop 2
SYMATTR InstName R8
SYMATTR Value {R}
SYMBOL cap -336 512 R0
SYMATTR InstName C4
SYMATTR Value {C}
SYMBOL res -192 736 R0
SYMATTR InstName R9
SYMATTR Value {PD}
SYMBOL res -192 720 R90
WINDOW 0 0 56 VBottom 2
WINDOW 3 32 56 VTop 2
SYMATTR InstName R10
SYMATTR Value {R}
SYMBOL cap -336 768 R0
SYMATTR InstName C5
SYMATTR Value {C}
SYMBOL diode 64 288 R90
WINDOW 0 0 32 VBottom 2
WINDOW 3 32 32 VTop 2
SYMATTR InstName D8
SYMBOL diode 64 464 R90
WINDOW 0 0 32 VBottom 2
WINDOW 3 32 32 VTop 2
SYMATTR InstName D9
SYMBOL diode 64 544 R90
WINDOW 0 0 32 VBottom 2
WINDOW 3 32 32 VTop 2
SYMATTR InstName D10
SYMBOL diode 64 720 R90
WINDOW 0 0 32 VBottom 2
WINDOW 3 32 32 VTop 2
SYMATTR InstName D11
SYMBOL diode 64 800 R90
WINDOW 0 0 32 VBottom 2
WINDOW 3 32 32 VTop 2
SYMATTR InstName D12
TEXT 248 728 Left 2 !.model SW SW(Vt=0.1)
TEXT 248 760 Left 2 !.param R=1MEG C=0.1u PD=2.2k TON=1.25m
TEXT -496 1000 Left 2 !.tran 1
TEXT 248 808 Left 2 !V2 ROW1 0 PULSE(0 0.2 10m 0 0 {TON} 2.5m 8)
TEXT 248 784 Left 2 !V1 VDD 0 3.3
TEXT 248 832 Left 2 !V3 COL1 0 PULSE(0 0.2 100m 0 0 50m 0 0)
TEXT 248 856 Left 2 !V4 DIG1 0 PULSE(0 0 0 0 0 0 0 1)
TEXT 248 880 Left 2 !V5 ROW2 0 PULSE(0 0 0 0 0 0 0 1)
TEXT 248 904 Left 2 !V6 COL2 0 PULSE(0 0 0 0 0 0 0 1)
TEXT 248 928 Left 2 !V7 DIG2 0 PULSE(0 0 0 0 0 0 0 1)
