Version 4
SHEET 1 960 680
WIRE 208 -256 128 -256
WIRE 288 -256 208 -256
WIRE 368 -256 288 -256
WIRE 448 -256 368 -256
WIRE 528 -256 448 -256
WIRE 608 -256 528 -256
WIRE 688 -256 608 -256
WIRE 208 -208 208 -256
WIRE 288 -208 288 -256
WIRE 368 -208 368 -256
WIRE 448 -208 448 -256
WIRE 528 -208 528 -256
WIRE 608 -208 608 -256
WIRE 688 -208 688 -256
WIRE 208 -64 208 -128
WIRE 288 -64 288 -128
WIRE 368 -64 368 -128
WIRE 448 -64 448 -128
WIRE 528 -64 528 -128
WIRE 608 -64 608 -128
WIRE 688 -64 688 -128
WIRE 208 48 208 0
WIRE 208 48 64 48
WIRE 288 48 288 0
WIRE 288 48 208 48
WIRE 368 48 368 0
WIRE 368 48 288 48
WIRE 448 48 448 0
WIRE 448 48 368 48
WIRE 528 48 528 0
WIRE 528 48 448 48
WIRE 608 48 608 0
WIRE 608 48 528 48
WIRE 688 48 688 0
WIRE 688 48 608 48
WIRE -192 96 -288 96
WIRE -48 96 -112 96
WIRE 0 96 -48 96
WIRE 208 96 208 48
WIRE -48 144 -48 96
WIRE 144 144 64 144
WIRE 768 176 768 128
WIRE 896 176 896 128
WIRE -48 272 -48 224
WIRE 64 272 64 144
WIRE 64 272 -48 272
WIRE 96 272 64 272
WIRE 208 272 208 192
WIRE 208 272 176 272
WIRE 208 304 208 272
WIRE 768 304 768 256
WIRE 896 304 896 256
WIRE 208 416 208 384
FLAG 208 416 0
FLAG -288 96 GPIO_FPGA
FLAG 128 -256 Vcc
FLAG 768 304 0
FLAG 768 128 Vcc
FLAG 896 304 0
FLAG 896 128 GPIO_FPGA
SYMBOL npn 144 96 R0
SYMATTR InstName Q1
SYMBOL LED 192 -64 R0
SYMATTR InstName D1
SYMBOL LED 272 -64 R0
SYMATTR InstName D2
SYMBOL LED 352 -64 R0
SYMATTR InstName D3
SYMBOL LED 432 -64 R0
SYMATTR InstName D4
SYMBOL LED 512 -64 R0
SYMATTR InstName D5
SYMBOL LED 592 -64 R0
SYMATTR InstName D6
SYMBOL LED 672 -64 R0
SYMATTR InstName D7
SYMBOL res 192 -224 R0
SYMATTR InstName R1
SYMATTR Value {R}
SYMBOL res 272 -224 R0
SYMATTR InstName R2
SYMATTR Value {R}
SYMBOL res 352 -224 R0
SYMATTR InstName R3
SYMATTR Value {R}
SYMBOL res 432 -224 R0
SYMATTR InstName R4
SYMATTR Value {R}
SYMBOL res 512 -224 R0
SYMATTR InstName R5
SYMATTR Value {R}
SYMBOL res 592 -224 R0
SYMATTR InstName R6
SYMATTR Value {R}
SYMBOL res 672 -224 R0
SYMATTR InstName R7
SYMATTR Value {R}
SYMBOL res -96 80 R90
WINDOW 0 0 56 VBottom 2
WINDOW 3 32 56 VTop 2
SYMATTR InstName R8
SYMATTR Value 2.7k
SYMBOL res -32 240 R180
WINDOW 0 36 76 Left 2
WINDOW 3 36 40 Left 2
SYMATTR InstName R9
SYMATTR Value 7.2k
SYMBOL voltage 768 160 R0
WINDOW 123 0 0 Left 0
WINDOW 39 0 0 Left 0
SYMATTR InstName V1
SYMATTR Value 3.3
SYMBOL voltage 896 160 R0
WINDOW 123 0 0 Left 0
WINDOW 39 0 0 Left 0
SYMATTR InstName V2
SYMATTR Value 3.3
SYMBOL npn 0 48 R0
SYMATTR InstName Q2
SYMBOL res 192 256 R90
WINDOW 0 0 56 VBottom 2
WINDOW 3 32 56 VTop 2
SYMATTR InstName R10
SYMATTR Value 3k
SYMBOL res 192 288 R0
SYMATTR InstName R11
SYMATTR Value 1
TEXT 440 120 Left 2 !.param R = 220
TEXT -440 280 Left 2 !.tran 100us
