Version 4
SHEET 1 1680 680
WIRE 208 -256 128 -256
WIRE 288 -256 208 -256
WIRE 368 -256 288 -256
WIRE 448 -256 368 -256
WIRE 528 -256 448 -256
WIRE 608 -256 528 -256
WIRE 688 -256 608 -256
WIRE 768 -256 688 -256
WIRE 864 -256 768 -256
WIRE 960 -256 864 -256
WIRE 1056 -256 960 -256
WIRE 1152 -256 1056 -256
WIRE 1248 -256 1152 -256
WIRE 1328 -256 1248 -256
WIRE 208 -208 208 -256
WIRE 288 -208 288 -256
WIRE 368 -208 368 -256
WIRE 448 -208 448 -256
WIRE 528 -208 528 -256
WIRE 608 -208 608 -256
WIRE 688 -208 688 -256
WIRE 768 -208 768 -256
WIRE 864 -208 864 -256
WIRE 960 -208 960 -256
WIRE 1056 -208 1056 -256
WIRE 1152 -208 1152 -256
WIRE 1248 -208 1248 -256
WIRE 1328 -208 1328 -256
WIRE 208 -64 208 -128
WIRE 288 -64 288 -128
WIRE 368 -64 368 -128
WIRE 448 -64 448 -128
WIRE 528 -64 528 -128
WIRE 608 -64 608 -128
WIRE 688 -64 688 -128
WIRE 768 -64 768 -128
WIRE 864 -64 864 -128
WIRE 960 -64 960 -128
WIRE 1056 -64 1056 -128
WIRE 1152 -64 1152 -128
WIRE 1248 -64 1248 -128
WIRE 1328 -64 1328 -128
WIRE 208 48 208 0
WIRE 208 48 64 48
WIRE 288 48 288 0
WIRE 288 48 208 48
WIRE 368 48 368 0
WIRE 368 48 288 48
WIRE 448 48 448 0
WIRE 448 48 368 48
WIRE 528 48 528 0
WIRE 528 48 448 48
WIRE 608 48 608 0
WIRE 608 48 528 48
WIRE 688 48 688 0
WIRE 688 48 608 48
WIRE 768 48 768 0
WIRE 768 48 688 48
WIRE 864 48 864 0
WIRE 864 48 768 48
WIRE 960 48 960 0
WIRE 960 48 864 48
WIRE 1056 48 1056 0
WIRE 1056 48 960 48
WIRE 1152 48 1152 0
WIRE 1152 48 1056 48
WIRE 1248 48 1248 0
WIRE 1248 48 1152 48
WIRE 1328 48 1328 0
WIRE 1328 48 1248 48
WIRE -192 96 -288 96
WIRE -48 96 -112 96
WIRE 0 96 -48 96
WIRE 208 96 208 48
WIRE -48 144 -48 96
WIRE 144 144 64 144
WIRE -48 272 -48 224
WIRE 64 272 64 144
WIRE 64 272 -48 272
WIRE 96 272 64 272
WIRE 208 272 208 192
WIRE 208 272 176 272
WIRE 432 288 432 240
WIRE 560 288 560 240
WIRE 208 304 208 272
WIRE 208 416 208 384
WIRE 432 416 432 368
WIRE 560 416 560 368
FLAG 208 416 0
FLAG -288 96 GPIO_FPGA
FLAG 128 -256 Vcc
FLAG 432 416 0
FLAG 432 240 Vcc
FLAG 560 416 0
FLAG 560 240 GPIO_FPGA
SYMBOL npn 144 96 R0
SYMATTR InstName Q1
SYMBOL LED 192 -64 R0
SYMATTR InstName D1
SYMATTR Value LED1
SYMBOL LED 272 -64 R0
SYMATTR InstName D2
SYMATTR Value LED1
SYMBOL LED 352 -64 R0
SYMATTR InstName D3
SYMATTR Value LED1
SYMBOL LED 432 -64 R0
SYMATTR InstName D4
SYMATTR Value LED1
SYMBOL LED 512 -64 R0
SYMATTR InstName D5
SYMATTR Value LED1
SYMBOL LED 592 -64 R0
SYMATTR InstName D6
SYMATTR Value LED1
SYMBOL LED 672 -64 R0
SYMATTR InstName D7
SYMATTR Value LED1
SYMBOL res 192 -224 R0
SYMATTR InstName R1
SYMATTR Value {R}
SYMBOL res 272 -224 R0
SYMATTR InstName R2
SYMATTR Value {R}
SYMBOL res 352 -224 R0
SYMATTR InstName R3
SYMATTR Value {R}
SYMBOL res 432 -224 R0
SYMATTR InstName R4
SYMATTR Value {R}
SYMBOL res 512 -224 R0
SYMATTR InstName R5
SYMATTR Value {R}
SYMBOL res 592 -224 R0
SYMATTR InstName R6
SYMATTR Value {R}
SYMBOL res 672 -224 R0
SYMATTR InstName R7
SYMATTR Value {R}
SYMBOL res -96 80 R90
WINDOW 0 0 56 VBottom 2
WINDOW 3 32 56 VTop 2
SYMATTR InstName R8
SYMATTR Value 2.7k
SYMBOL res -32 240 R180
WINDOW 0 36 76 Left 2
WINDOW 3 36 40 Left 2
SYMATTR InstName R9
SYMATTR Value 7.2k
SYMBOL voltage 432 272 R0
WINDOW 123 0 0 Left 0
WINDOW 39 0 0 Left 0
SYMATTR InstName V1
SYMATTR Value 3.3
SYMBOL voltage 560 272 R0
WINDOW 123 0 0 Left 0
WINDOW 39 0 0 Left 0
SYMATTR InstName V2
SYMATTR Value 3.3
SYMBOL npn 0 48 R0
SYMATTR InstName Q2
SYMBOL res 192 256 R90
WINDOW 0 0 56 VBottom 2
WINDOW 3 32 56 VTop 2
SYMATTR InstName R10
SYMATTR Value 3k
SYMBOL res 192 288 R0
SYMATTR InstName R11
SYMATTR Value 1
SYMBOL LED 752 -64 R0
SYMATTR InstName D8
SYMATTR Value LED1
SYMBOL res 752 -224 R0
SYMATTR InstName R12
SYMATTR Value {R}
SYMBOL LED 848 -64 R0
SYMATTR InstName D9
SYMATTR Value LED1
SYMBOL res 848 -224 R0
SYMATTR InstName R13
SYMATTR Value {R}
SYMBOL LED 944 -64 R0
SYMATTR InstName D10
SYMATTR Value LED1
SYMBOL res 944 -224 R0
SYMATTR InstName R14
SYMATTR Value {R}
SYMBOL LED 1040 -64 R0
SYMATTR InstName D11
SYMATTR Value LED1
SYMBOL res 1040 -224 R0
SYMATTR InstName R15
SYMATTR Value {R}
SYMBOL LED 1136 -64 R0
SYMATTR InstName D12
SYMATTR Value LED1
SYMBOL res 1136 -224 R0
SYMATTR InstName R16
SYMATTR Value {R}
SYMBOL LED 1232 -64 R0
SYMATTR InstName D13
SYMATTR Value LED1
SYMBOL res 1232 -224 R0
SYMATTR InstName R17
SYMATTR Value {R}
SYMBOL LED 1312 -64 R0
SYMATTR InstName D14
SYMATTR Value LED1
SYMBOL res 1312 -224 R0
SYMATTR InstName R18
SYMATTR Value {R}
TEXT 656 272 Left 2 !.param R = 220
TEXT -440 280 Left 2 !.tran 100us
TEXT 648 312 Left 2 !*Typ RED GaAs LED: Vf=1.7V Vr=4V If=40mA trr=3uS\n.MODEL LED1 D (IS=93.2P RS=42M N=3.73 BV=4 IBV=10U\n+ CJO=2.97P VJ=.75 M=.333 TT=4.32U)
